 &PTRACERS_PARM01
 PTRACERS_numInUse=27,
 PTRACERS_Iter0= 0,
#
 PTRACERS_advScheme=27*33,
 PTRACERS_diffKh=27*0.E3,
 PTRACERS_diffKr=27*1.E-5,
 PTRACERS_useGMRedi=27*.FALSE.,
 PTRACERS_useKPP=27*.TRUE.,
#
 PTRACERS_names(1)= 'DIC',
 PTRACERS_names(4)= 'NH4',
 PTRACERS_names(3)= 'NO2',
 PTRACERS_names(2)= 'NO3',
 PTRACERS_names(5)= 'PO4',
 PTRACERS_names(7)= 'SiO2',
 PTRACERS_names(6)= 'FeT',
 PTRACERS_names(8)= 'DOC',
 PTRACERS_names(9)= 'DON',
 PTRACERS_names(10)= 'DOP',
 PTRACERS_names(11)= 'DOFe',
 PTRACERS_names(12)= 'POC',
 PTRACERS_names(13)= 'PON',
 PTRACERS_names(14)= 'POP',
 PTRACERS_names(16)= 'POSi',
 PTRACERS_names(15)= 'POFe',
 PTRACERS_names(17)= 'PIC',
 PTRACERS_names(18)= 'ALK',
 PTRACERS_names(19)= 'O2',
 PTRACERS_names(20)= 'CDOM',
 PTRACERS_names(21)= 'c01',
 PTRACERS_names(22)= 'c02',
 PTRACERS_names(23)= 'c03',
 PTRACERS_names(24)= 'Chl01',
 PTRACERS_names(25)= 'Chl02',
 PTRACERS_names(26)= 'ch01',
 PTRACERS_names(27)= 'ch02',

 PTRACERS_units(1)='mmol C/m^3',
 PTRACERS_units(2)='mmol N/m^3',
 PTRACERS_units(3)='mmol N/m^3',
 PTRACERS_units(4)='mmol N/m^3',
 PTRACERS_units(5)='mmol P/m^3',
 PTRACERS_units(7)='mmol Si/m^3',
 PTRACERS_units(6)='mmol Fe/m^3',
 PTRACERS_units(8)='mmol C/m^3',
 PTRACERS_units(9)='mmol N/m^3',
 PTRACERS_units(10)='mmol P/m^3',
 PTRACERS_units(11)='mmol Fe/m^3',
 PTRACERS_units(12)='mmol C/m^3',
 PTRACERS_units(13)='mmol N/m^3',
 PTRACERS_units(14)='mmol P/m^3',
 PTRACERS_units(16)='mmol Si/m^3',
 PTRACERS_units(15)='mmol Fe/m^3',
 PTRACERS_units(17)='mmol C/m^3',
 PTRACERS_units(18)='mmol eq/m^3',
 PTRACERS_units(19)='mmol O/m^3',
 PTRACERS_units(20:23)=4*'mmol C/m^3',
 PTRACERS_units(24:25)=2*'mg/m^3',
 PTRACERS_units(26:27)=2*'mmol C/m^3',

 PTRACERS_initialFile(1)= 'forcing/zhenwu/input_50_layer/dic.bin',
 PTRACERS_initialFile(4)= 'forcing/zhenwu/input_50_layer/NH4.bin',
 PTRACERS_initialFile(3)= 'forcing/zhenwu/input_50_layer/NO2.bin',
 PTRACERS_initialFile(2)= 'forcing/zhenwu/input_50_layer/nitr.bin',
 PTRACERS_initialFile(5)= 'forcing/zhenwu/input_50_layer/phos.bin',
 PTRACERS_initialFile(7)= 'forcing/zhenwu/input_50_layer/sil.bin ',
 PTRACERS_initialFile(6)= 'forcing/zhenwu/input_50_layer/fet.bin',
 PTRACERS_ref(1:50,   8)=50*0.,
 PTRACERS_initialFile(9)= 'forcing/zhenwu/input_50_layer/DON.bin',
 PTRACERS_initialFile(10)='forcing/zhenwu/input_50_layer/DOP.bin',
 PTRACERS_initialFile(11)='forcing/zhenwu/input_50_layer/DOFe.bin',
 PTRACERS_ref(1:50,   12)=50*0.,
 PTRACERS_initialFile(13)='forcing/zhenwu/input_50_layer/PON.bin',
 PTRACERS_initialFile(14)='forcing/zhenwu/input_50_layer/POP.bin',
 PTRACERS_initialFile(16)='forcing/zhenwu/input_50_layer/POSi.bin',
 PTRACERS_initialFile(15)='forcing/zhenwu/input_50_layer/POFe.bin',
 PTRACERS_ref(1:50,   17)=50*0.,
 PTRACERS_initialFile(18)='forcing/zhenwu/input_50_layer/alk.bin',
 PTRACERS_initialFile(19)='forcing/zhenwu/input_50_layer/o2.bin',
 PTRACERS_initialFile(21:23)=3*'forcing/zhenwu/input_50_layer/B.bin',
 /
